.model Mbreakn-Y3 NMOS level=3 TPG=1 TOX=1.98e-8 NSUB=4.9999999e10
+ UO=812.5126e4 VTO=0.69486 LAMBDA=0.013333 LD=0.1e-6 KP=2.33082e-5
+ GAMMA=0.60309 PHI=1 PB=1 RD=1 RS=1 CJ=4.091e-4 MJ=0.307 CJSW=3.078e-10
+ MJSW=0.3 CGDO=3.93e-10 CGSO=3.93e-10 XJ=0.2e-6 VMAX=1186662 KAPPA=0.1579183
+ ETA=5.0622310e-2 THETA=0.8109787
*$
