.model Mbreakp1 PMOS level=1 TOX=1.98e-8 NSUB=4.9999999e11 VTO=-0.60865
+ LAMBDA=0.018966 LD=0.28u KP=7.69968E-06 GAMMA=0.89213 PHI=1 PB=1 RD=1 RS=1
+ CJ=6.852e-3 MJ=0.429 CJSW=5.217e-9 MJSW=0.351 CGDO=7.29e-9 CGSO=7.29e-9
*$
