.model Mbreakp PMOS level=1 TPG=-1 TOX=1.98e-8 NSUB=4.9999999e11 UO=89.16160e4
+ VTO=-0.8 LD=0.28u GAMMA=1.211640 PB=1 RD=1 RS=1 CJ=6.852e-4 MJ=0.429
+ CJSW=5.217e-10 MJSW=0.351 CGDO=7.29e-10 CGSO=7.29e-10 XJ=0.4u VMAX=5.9e7
+ KAPPA=0.2162577 ETA=2.7580135E-02 THETA=0.1184638
*$
