.model Mbreakp PMOS level=1 RS=1 RD=1
*$
