.model Mbreakn2 NMOS level=2 TPG=1 TOX=1.98E-12 NSUB=4.9999999e10 VTO=0.69486
+ LAMBDA=0.013333 LD=0.1u KP=2.33082E-05 GAMMA=0.60309 PHI=1 PB=1 RD=1 RS=1
+ CJ=4.091 MJ=0.307 CJSW=3.078E-6 MJSW=0.3 CGDO=3.93E-6 CGSO=3.93E-6
*$
