.model Mbreakp2 PMOS level=2 RS=1 RD=1
*$
