.model Mbreakp2 PMOS level=2 TOX=1.98e-8 NSUB=4.9999999e11 VTO=-0.60865
+ LAMBDA=0.018966 LD=0.28u KP=7.69968E-06 GAMMA=0.89213 PHI=1 PB=1 RD=1 RS=1
+ CJ=6.852e-3 MJ=0.429 CJSW=5.217e-9 MJSW=0.351 CGDO=7.29e-9 CGSO=7.29e-9
*$
.model Mbreakn2 NMOS level=2 TOX=1.98e-8 NSUB=4.9999999e10 VTO=0.69486
+ LAMBDA=0.013333 LD=0.1u KP=2.33082E-05 GAMMA=0.60309 PB=1 RD=1 RS=1
+ CJ=4.091e-3 MJ=0.307 CJSW=3.078e-9 MJSW=0.3 CGDO=3.93e-9 CGSO=3.93e-9
*$
