.model Mbreakp2 PMOS level=2 NSUB=4.9999999e10 RD=1 RS=1
*$
