.model Mbreakn3 NMOS level=3 TPG=1 TOX=1.98E-12 NSUB=4.9999999e10 VTO=0.69486
+ LD=0.1u KP=2.33082E-05 GAMMA=0.60309 PHI=1 PB=1 RD=0.1 RS=0.1 CJ=4.091
+ MJ=0.307 CJSW=3.078E-6 MJSW=0.3 CGDO=3.93E-6 CGSO=3.93E-6
*$
