.model Mbreakp3 PMOS level=3 TOX=1.98e-8 NSUB=4.9999999e11 VTO=-0.60865
+ LAMBDA=0.018966 LD=0.28u KP=7.69968E-06 GAMMA=0.89213 PHI=1 PB=1 RD=1 RS=1
+ CJ=6.852e-3 MJ=0.429 CJSW=5.217e-9 MJSW=0.351 CGDO=7.29e-9 CGSO=7.29e-9
+ XJ=0.4u VMAX=5.9E+07
*$
.model Mbreakn3 NMOS level=3 TOX=1.98e-8 NSUB=4.9999999e10 VTO=0.69486
+ LAMBDA=0.013333 LD=0.1u KP=2.33082E-05 GAMMA=0.60309 PHI=1 PB=1 RD=1 RS=1
+ CJ=4.091e-3 MJ=0.307 CJSW=3.078e-9 MJSW=0.3 CGDO=3.93e-9 CGSO=3.93e-9
+ XJ=0.2u VMAX=1186662 KAPPA=0.1579183 ETA=5.0622310E-02 THETA=0.8109787
*$
