.model Mbreakp3 PMOS level=3 NSUB=4.9999999e10 RD=1 RS=1
*$
