.model Mbreakn3 NMOS level=3 TPG=1 NSUB=4.9999999e10 RD=1 RS=1
*$
