.model Mbreakp3 PMOS level=3 RS=1 RD=1
*$
