.model Mbreakn3 NMOS level=3 TPG=1 TOX=1.98E-12 NSUB=4.9999999e10
+ UO=812.5126e4 VTO=0.8 LD=0.1u PB=1 RD=1 RS=1 CJ=4.091e-3 MJ=0.307
+ CJSW=3.078E-9 MJSW=0.3 CGDO=3.93E-9 CGSO=3.93E-9 XJ=0.2u VMAX=1186662
+ KAPPA=0.1579183 ETA=5.0622310E-02 THETA=0.8109787
*$
