.model Mbreakp3 PMOS level=3 TPG=-1 TOX=1.98e-8 NSUB=4.9999999e11
+ UO=89.1616e4 VTO=-0.8 LD=0.28u GAMMA=1.21164 PB=1 RD=1 RS=1 CJ=6.852E-4
+ MJ=0.429 CJSW=5.217E-10 MJSW=0.351 CGDO=7.29E-10 CGSO=7.29E-10 XJ=0.4u
+ VMAX=5.9e7 KAPPA=0.2162577 ETA=2.7580135E-02 THETA=0.1184638
*$
.model Mbreakn3 NMOS level=3 TPG=1 TOX=1.98e-8 NSUB=4.9999999e10
+ UO=812.5126e4 VTO=0.8 LD=0.1u GAMMA=1.140501 PB=1 RD=1 RS=1 CJ=4.091E-4
+ MJ=0.307 CJSW=3.078E-10 MJSW=0.3 CGDO=3.93E-10 CGSO=3.93E-10 XJ=0.2u
+ VMAX=1186662 KAPPA=0.1579183 ETA=5.0622310E-02 THETA=0.8109787
*$
