.model MbreakP-X PMOS level=1 TPG=1 NSUB=4.9999999e10 VTO=-0.5 LAMBDA=0.05
+ LD=0.1e-6 KP=660e-6 GAMMA=0.60309 PHI=1 PB=1 Rd=1 Rs=1 CJ=4.09e-4 MJ=0.307
+ CJSW=3.078e-10 MJSW=0.3 CGBO=2e-9 CGDO=3e-9 CGSO=3e-9
*$
