* OrCAD Model Editor - Version 9.1

*$
.model QbreakN NPN bf=80 rb=100 ccs=2pf tf=0.3ns tr=6ns cje=3pf cjc=2pf
*$
