import "C:/Cellier/Classes/Ece449/BondLib/BondLib.mo";


package Verif

  annotation (uses(Modelica(version="2.2.1"), BondLib(version="2.1a")), version="2.1a");
  model test1

    annotation (Diagram,
      Documentation(info="<html>
<font color=red><b>Berkeley Spice3g</b></font> netlist: <p>

<pre>
Highpass

V1 1 0 sin (0 1 20 0 0)
R1 2 0 200
C1 1 2 0.00001

.TRAN 0.000001 1 0 0.0001
.END
</pre> <p>

<hr> <p>

Corresponding <font color=red><b>PSpice</b></font> schematic: <p>
<img src=\"../Images/test1a.png\"> <p>

<font color=red><b>PSpice</b></font> simulation results: <p>
<img src=\"../Images/test1b.png\"> <p>

<hr> <p>

<font color=red><b>BondLib</b></font> simulation results: <p>
<img src=\"../Images/test1c.png\"> <p>

<hr> <p>

<font size=5><b><u>Comments:</u></b></font> <p>

<font color=blue><b>The blue curve represents the capacitive current as computed by</b></font> <font color=red><b>Bondlib</b></font><font color=blue><b>, whereas the red curve represents the same quantity as obtained by</b></font> <font color=red><b>PSpice</b></font><font color=blue><b>.  The</b></font> <font color=red><b>PSpice</b></font><font color=blue><b> results were imported into </b></font> <font color=red><b>Dymola</b></font><font color=blue><b> in</b></font> <b>CSV</b> <font color=blue><b>format, as suggested by Hilding Elmqvist.</b></font> <p>

<font color=blue><b>The (correct) simulation results remain unchanged with default steady-state initialization (</b></font><b>Advanced.DefaultSteadyStateInitialization = true</b><font color=blue><b>).</b></font>
</html>"),
      Icon(
        Ellipse(extent=[-80,80; 80,-80], style(
            color=58,
            rgbcolor={0,171,0},
            fillColor=58,
            rgbfillColor={0,186,0},
            fillPattern=1)),
        Ellipse(extent=[-60,60; 60,-60], style(
            color=58,
            rgbcolor={0,171,0},
            fillColor=7,
            rgbfillColor={255,255,255},
            fillPattern=1)),
        Rectangle(extent=[-68,10; 70,-10], style(
            color=58,
            rgbcolor={0,184,0},
            fillColor=58,
            rgbfillColor={0,188,0},
            fillPattern=1)),
        Polygon(points=[-40,-16; -4,-38; 42,30; 36,34; -6,-28; -36,-10; -40,-16],
            style(
            color=0,
            rgbcolor={0,0,0},
            fillColor=0,
            rgbfillColor={0,0,0},
            fillPattern=1))),
      experiment(StopTime=0.2),
      experimentSetupOutput);
    BondLib.Electrical.Analog.Sources.SineVoltage V0(V=1, freqHz=20)
      annotation (extent=[-50,0; -30,20],  rotation=-90);
    BondLib.Electrical.Analog.Basic.Ground Ground1
      annotation (extent=[-10,-40; 10,-20]);
    BondLib.Electrical.Analog.Spice.C C1(C=1e-5)
      annotation (extent=[-10,30; 10,50]);
    BondLib.Electrical.Analog.Spice.R R1(R=200)
      annotation (extent=[30,0; 50,20],  rotation=-90);
  equation
    connect(V0.p, C1.p) annotation (points=[-40,20; -40,40; -10,40],style(color=
           3, rgbcolor={0,0,255}));
    connect(C1.n, R1.p) annotation (points=[10,40; 40,40; 40,20], style(color=3,
          rgbcolor={0,0,255}));
    connect(V0.n, Ground1.p) annotation (points=[-40,0; -40,-20; 0,-20],
        style(color=3, rgbcolor={0,0,255}));
    connect(R1.n, Ground1.p) annotation (points=[40,0; 40,-20; 0,-20],
        style(color=3, rgbcolor={0,0,255}));
  end test1;
  annotation (Diagram(
      Rectangle(extent=[-60,40; 60,-40], style(
          color=51,
          rgbcolor={255,255,85},
          thickness=4,
          fillColor=30,
          rgbfillColor={244,244,244})),
      Text(
        extent=[-42,30; 42,16],
        style(color=3, rgbcolor={0,0,255}),
        string="Verification package"),
      Text(
        extent=[-14,18; 14,8],
        style(color=3, rgbcolor={0,0,255}),
        string="for"),
      Text(
        extent=[-33,8; 35,-2],
        style(color=3, rgbcolor={0,0,255}),
        string="ModelicaSpice 2.1"),
      Text(
        extent=[-44,-32; 46,-40],
        style(color=3, rgbcolor={0,0,255}),
        string="All models also exist in Spice"),
      Text(
        extent=[-33,-4; 36,-14],
        style(color=3, rgbcolor={0,0,255}),
        string="(part of BondLib 2.1)")),
Documentation(info="<html>
Verification package for BondLib.
</html>
"), version="1",
    conversion(from(version="", script="ConvertFromVerif_.mos")),
    uses(BondLib(version="2.1")));

  model test2

    annotation (Diagram,
      experiment(StopTime=1e-007),
      Documentation(info="<html>
<font color=red><b>Berkeley Spice3g</b></font> netlist: <p>

<pre>
Inverter

V1      4       0       5
V2      2       0       PWL(0 0 100n 5)
Rl      4       1       3

M1 3 2 0 0 MODN
M2 1 2 3 1 MODP

.MODEL MODN NMOS Level=1 RD=1 RS=1
.MODEL MODP PMOS Level=1 RD=1 RS=1

.print tran v(4)
.TRAN 0.01 100n 0 0.1n
.END
</pre> <p>

<hr> <p>

Corresponding <font color=red><b>PSpice</b></font> schematic: <p>
<img src=\"../Images/test2a.png\"> <p>

<font color=red><b>PSpice</b></font> simulation results: <p>
<img src=\"../Images/test2b.png\"> <p>

<hr> <p>

<font color=red><b>BondLib</b></font> simulation results: <p>
<img src=\"../Images/test2c.png\"> <p>

<hr> <p>

<font size=5><b><u>Comments:</u></b></font> <p>

<font color=blue><b>Default steady-state initialization (</b></font><b>Advanced.DefaultSteadyStateInitialization = true</b><font color=blue><b>) fails on this example.  The Newton iteration does not converge and the homotopy method leads to an even larger fast transient.</b></font>
</html>"),
      Icon(
        Ellipse(extent=[-80,80; 80,-80], style(
            color=58,
            rgbcolor={0,171,0},
            fillColor=58,
            rgbfillColor={0,186,0},
            fillPattern=1)),
        Ellipse(extent=[-60,60; 60,-60], style(
            color=58,
            rgbcolor={0,171,0},
            fillColor=7,
            rgbfillColor={255,255,255},
            fillPattern=1)),
        Rectangle(extent=[-68,10; 70,-10], style(
            color=58,
            rgbcolor={0,184,0},
            fillColor=58,
            rgbfillColor={0,188,0},
            fillPattern=1)),
        Polygon(points=[-40,-16; -4,-38; 42,30; 36,34; -6,-28; -36,-10; -40,-16],
            style(
            color=0,
            rgbcolor={0,0,0},
            fillColor=0,
            rgbfillColor={0,0,0},
            fillPattern=1))));
    BondLib.Electrical.Analog.Basic.Ground Ground1
      annotation (extent=[-10,-50; 10,-30]);
    BondLib.Electrical.Analog.Spice.Mp Mp1(
      Level=1,
      RD=1,
      RS=1)                                annotation (extent=[20,34; 40,58]);
    BondLib.Electrical.Analog.Spice.Mn Mn1(
      Level=1,
      RD=1,
      RS=1)                                annotation (extent=[20,4; 40,28]);
    BondLib.Electrical.Analog.Sources.RampVoltage V1(V=5, duration=1e-7)
      annotation (extent=[-10,-20; 10,0], rotation=270);
    BondLib.Electrical.Analog.Basic.Ground Ground2
      annotation (extent=[-50,-50; -30,-30]);
    BondLib.Electrical.Analog.Basic.Ground Ground3
      annotation (extent=[30,-50; 50,-30]);
    BondLib.Electrical.Analog.Spice.R R1(R=3)
      annotation (extent=[-10,50; 10,70]);
    BondLib.Electrical.Analog.Sources.ConstantVoltage V0(V=5)
      annotation (extent=[-50,-20; -30,0], rotation=-90);
  equation
    connect(Mp1.S, Mn1.D) annotation (points=[40,40; 40,22],
        style(color=3, rgbcolor={0,0,255}));
    connect(Ground1.p, V1.n)           annotation (points=[0,-30; 0,-20;
          -1.83691e-015,-20],
        style(color=3, rgbcolor={0,0,255}));
    connect(Mn1.S, Ground3.p)
      annotation (points=[40,10; 40,-30],  style(color=3, rgbcolor={0,0,255}));
    connect(Mn1.G, V1.p)           annotation (points=[20,10; 1.83691e-015,10;
          1.83691e-015,0],
        style(color=3, rgbcolor={0,0,255}));
    connect(Mp1.D, R1.n) annotation (points=[40,52; 40,60; 10,60], style(color=
            3, rgbcolor={0,0,255}));
    connect(Mn1.G, Mp1.G) annotation (points=[20,10; 0,10; 0,40; 20,40], style(
          color=3, rgbcolor={0,0,255}));
    connect(Mp1.D, Mp1.B)
      annotation (points=[40,52; 40,46], style(color=3, rgbcolor={0,0,255}));
    connect(Mn1.B, Mn1.S)
      annotation (points=[40,16; 40,10], style(color=3, rgbcolor={0,0,255}));
    connect(V0.n, Ground2.p) annotation (points=[-40,-20; -40,-30], style(color=3,
          rgbcolor={0,0,255}));
    connect(V0.p, R1.p) annotation (points=[-40,0; -40,60; -10,60], style(color=
           3, rgbcolor={0,0,255}));
  end test2;

    model test2_II

    annotation (Diagram,
      experiment(StopTime=1e-007),
      Documentation(info="<html>
Comparison of <font color=red><b>BondLib</b></font> simulation results of <b>test2</b> and <b>test2_II</b>: <p>
<img src=\"../Images/test2d.png\"> <p>

<hr> <p>

<font size=5><b><u>Comments:</u></b></font> <p>

<font color=blue><b>Default steady-state initialization (</b></font><b>Advanced.DefaultSteadyStateInitialization = true</b><font color=blue><b>) must fail on this example.  The reason is that the device temperature is now an additional state variable.  Default steady-state initialization requires that the derivative of the temperature be zero, which can only be accomplished if no currents flow through any of the resistors, which is incompatible with the electrical steady state.</b></font> <p>

<font color=blue><b>In order to get the default steady-state initialization to work correctly with the thermal ports connected, we would need to add a loss from the thermal capacitor to the environment, i.e., add a temperature source representing the ambient temperature and a thermal conduction from the thermal capacitor to the temperature source.</b></font> <p>

<font color=blue><b>This would allow the software to compute the steady-state temperature, i.e., the temperature value at which the circuit produces exactly as much heat as is being lost to the environment.</b></font>
</html>"),
      Icon(
        Ellipse(extent=[-80,80; 80,-80], style(
            color=58,
            rgbcolor={0,171,0},
            fillColor=58,
            rgbfillColor={0,186,0},
            fillPattern=1)),
        Ellipse(extent=[-60,60; 60,-60], style(
            color=58,
            rgbcolor={0,171,0},
            fillColor=7,
            rgbfillColor={255,255,255},
            fillPattern=1)),
        Rectangle(extent=[-68,10; 70,-10], style(
            color=58,
            rgbcolor={0,184,0},
            fillColor=58,
            rgbfillColor={0,188,0},
            fillPattern=1)),
        Polygon(points=[-40,-16; -4,-38; 42,30; 36,34; -6,-28; -36,-10; -40,-16],
            style(
            color=0,
            rgbcolor={0,0,0},
            fillColor=0,
            rgbfillColor={0,0,0},
            fillPattern=1))));

      BondLib.Electrical.Analog.Basic.Ground Ground1
        annotation (extent=[-10,-50; 10,-30]);
      BondLib.Electrical.Analog.Spice.Mp Mp1(
        Level=1,
        RD=1,
        RS=1,
      TRD1=0.1,
      TRS1=0.1)                              annotation (extent=[20,34; 40,58]);
      BondLib.Electrical.Analog.Spice.Mn Mn1(
        Level=1,
        RD=1,
        RS=1,
      TRD1=0.1,
      TRS1=0.1)                              annotation (extent=[20,4; 40,28]);
      BondLib.Electrical.Analog.Sources.RampVoltage V1(V=5, duration=1e-7)
        annotation (extent=[-10,-20; 10,0], rotation=270);
      BondLib.Electrical.Analog.Basic.Ground Ground2
        annotation (extent=[-50,-50; -30,-30]);
      BondLib.Electrical.Analog.Basic.Ground Ground3
        annotation (extent=[30,-50; 50,-30]);
    BondLib.Electrical.Analog.Spice.RampingSources.V V0(V=5)
      annotation (extent=[-50,-20; -30,0], rotation=-90);
    BondLib.Electrical.Analog.Spice.R R1(R=3, TR1=0.1)
      annotation (extent=[-10,50; 10,70]);
    BondLib.Thermal.HeatTransfer.Passive.ThermalConductor ThCond1(G=10)
      annotation (extent=[60,-30; 80,-10], rotation=-90);
    BondLib.Thermal.HeatTransfer.Passive.HeatCapacitor ThC1
      annotation (extent=[60,-50; 80,-70]);
    equation
      connect(Mp1.S,Mn1. D) annotation (points=[40,40; 40,22],
          style(color=3, rgbcolor={0,0,255}));
    connect(Ground1.p, V1.n)             annotation (points=[0,-30; 0,-20;
          -1.83691e-015,-20],
          style(color=3, rgbcolor={0,0,255}));
      connect(Mn1.S,Ground3. p)
        annotation (points=[40,10; 40,-30],  style(color=3, rgbcolor={0,0,255}));
    connect(Mn1.G, V1.p)             annotation (points=[20,10; 1.83691e-015,10;
          1.83691e-015,0],
          style(color=3, rgbcolor={0,0,255}));
    connect(V0.n, Ground2.p) annotation (points=[-40,-20; -40,-30], style(color=
           3, rgbcolor={0,0,255}));
    connect(R1.p, V0.p) annotation (points=[-10,60; -40,60; -40,0], style(color=
           3, rgbcolor={0,0,255}));
    connect(Mp1.D, R1.n) annotation (points=[40,52; 40,60; 10,60], style(color=
            3, rgbcolor={0,0,255}));
    connect(Mn1.G, Mp1.G) annotation (points=[20,10; 0,10; 0,40; 20,40], style(
          color=3, rgbcolor={0,0,255}));
    connect(Mp1.D, Mp1.B)
      annotation (points=[40,52; 40,46], style(color=3, rgbcolor={0,0,255}));
    connect(Mn1.B, Mn1.S)
      annotation (points=[40,16; 40,10], style(color=3, rgbcolor={0,0,255}));
    connect(R1.heatPort, Mp1.heatPort) annotation (points=[0,50; 10,50; 10,34;
          30,34], style(color=42, rgbcolor={191,0,0}));
    connect(R1.heatPort, Mn1.heatPort) annotation (points=[0,50; 10,50; 10,4;
          30,4], style(color=42, rgbcolor={191,0,0}));
    connect(ThCond1.port_b, ThC1.port) annotation (points=[70,-31; 70,-50],
        style(color=42, rgbcolor={191,0,0}));
    connect(ThCond1.port_a, Mn1.heatPort) annotation (points=[70,-9; 70,4; 30,4],
        style(color=42, rgbcolor={191,0,0}));
    end test2_II;

  model test3

    annotation (Diagram,
      experiment(Algorithm="Radau"),
      Documentation(info="<html>
<font color=red><b>Berkeley Spice3g</b></font> netlist: <p>

<pre>
Two-way DC converter

V1 1 4 sin (0 5 20 0 0)

D1 0 1 diode
D2 0 4 diode
D3 1 3 diode
D4 4 3 diode

Rl 3 0 200
Cl 3 0 0.1

.model diode d is=1.e-6 rs=1
.TRAN 0.0001 1 0 0.01
.END
</pre> <p>

<hr> <p>

Corresponding <font color=red><b>PSpice</b></font> schematic: <p>
<img src=\"../Images/test3a.png\"> <p>

<font color=red><b>PSpice</b></font> simulation results: <p>
<img src=\"../Images/test3b.png\"> <p>

<hr> <p>

<font color=red><b>BondLib</b></font> simulation results: <p>
<img src=\"../Images/test3c.png\"> <p>

<hr> <p>

<font size=5><b><u>Comments:</u></b></font> <p>

<font color=blue><b>The circuit fails to simulate using</b></font> <font color=red><b>Bondlib</b></font><font color=blue><b> with</b></font> <b>enforceStates = true</b><font color=blue><b>.  It dies with division 0/0 at time 0.  Hence I had to disable Dymola's state select algorithm by setting</b></font> <b>enforceStates = false</b><font color=blue><b>.  This shows that</b></font> <font color=red><b>Dymola's</b></font> <b>stateSelect</b> <font color=blue><b>feature doesn't always work yet.</b></font>  <font color=brown><b>(This problem has meanwhile been fixed, but only for</b></font> <b>test3</b><font color=brown><b>, not for</b></font> <b>test3_II</b><font color=brown><b>.)</b></font> <p>

<font color=red><b>Dymola</b></font> <font color=blue><b>chooses strange state variables with</b></font> <b>enforceStates = true</b><font color=blue><b>.  It chooses the diodic currents as state variables, which is bad news.  Hence it is better to keep</b></font> <b>enforceStates = false</b> <font color=blue><b>in this circuit.</b></font> <p>

<font color=blue><b>Also, the simulation results obtained by</b></font> <font color=red><b>Bondlib</b></font> <font color=blue><b>and</b></font> <font color=red><b>PSpice</b></font> <font color=blue><b>are similar but not identical.  The diode models seem to be slightly different.  (</b></font> <font color=red><b>Bondlib</b></font><font color=blue><b>'s diode model has not yet been debugged very much.)</b></font> <p>

<font color=blue><b>Finally on this example,</b></font> <font color=red><b>Bondlib</b></font> <font color=blue><b>proceeds noticeably slower in its simulation in comparison with</b></font> <font color=red><b>PSpice</b></font> <font color=blue><b>.  There are probably still some chattering issues associated with the diode model in</b></font> <font color=red><b>Bondlib</b></font> <font color=blue><b>.  The execution speed problem goes away when using</b></font> <b>Radau-IIa</b> <font color=blue><b>as an integrator instead of</b></font> <b>DASSL</b><font color=blue><b>.</b></font> <p>

<font color=blue><b>The (correct) simulation results remain unchanged with default steady-state initialization (</b></font><b>Advanced.DefaultSteadyStateInitialization = true</b><font color=blue><b>).</b></font>
</html>"),
      Icon(
        Ellipse(extent=[-80,80; 80,-80], style(
            color=6,
            rgbcolor={255,255,0},
            fillColor=6,
            rgbfillColor={255,255,0},
            fillPattern=1)),
        Ellipse(extent=[-60,60; 60,-60], style(
            color=6,
            rgbcolor={255,255,0},
            fillColor=7,
            rgbfillColor={255,255,255},
            fillPattern=1)),
        Rectangle(extent=[-68,10; 70,-10], style(
            color=6,
            rgbcolor={255,255,0},
            fillColor=6,
            rgbfillColor={255,255,0},
            fillPattern=1)),
        Text(
          extent=[-80,80; 80,-80],
          string="?",
          style(
            color=0,
            rgbcolor={0,0,0},
            fillColor=6,
            rgbfillColor={255,255,0},
            fillPattern=1))),
      experimentSetupOutput);
  public
    BondLib.Electrical.Analog.Basic.Ground Ground1
      annotation (extent=[40,-80; 60,-60]);
    BondLib.Electrical.Analog.Spice.D D1(
      IS=1.e-6,
      RS=1,
      IBV=1.e-3,
      EG=1.11,
      enforceStates=false) annotation (extent=[-30,20; -50,40], rotation=90);
    BondLib.Electrical.Analog.Spice.D D2(
      IS=1.e-6,
      RS=1,
      IBV=1.e-3,
      EG=1.11,
      enforceStates=false) annotation (extent=[10,20; 30,40], rotation=-90);
    BondLib.Electrical.Analog.Spice.D D3(
      IS=1.e-6,
      RS=1,
      IBV=1.e-3,
      EG=1.11,
      enforceStates=false) annotation (extent=[-50,-20; -30,0], rotation=-90);
    BondLib.Electrical.Analog.Spice.D D4(
      IS=1.e-6,
      RS=1,
      IBV=1.e-3,
      EG=1.11,
      enforceStates=false) annotation (extent=[30,-20; 10,0], rotation=90);
    BondLib.Electrical.Analog.Spice.RampingSources.sinV sinV1(V=5, freqHz=20)
      annotation (extent=[-90,0; -70,20], rotation=-90);
    BondLib.Electrical.Analog.Spice.C C1(C=0.1)
      annotation (extent=[40,-30; 60,-10], rotation=-90);
    BondLib.Electrical.Analog.Spice.R R1(R=200)
      annotation (extent=[70,-30; 90,-10], rotation=-90);
  equation
    connect(D1.p, D3.p)
      annotation (points=[-40,20; -40,0], style(color=3, rgbcolor={0,0,255}));
    connect(D4.n, D2.n)
      annotation (points=[20,0; 20,20], style(color=3, rgbcolor={0,0,255}));
    connect(D1.n, D2.p) annotation (points=[-40,40; -40,50; 20,50; 20,40],
        style(color=3, rgbcolor={0,0,255}));
    connect(D3.n, D4.p) annotation (points=[-40,-20; -40,-30; 20,-30; 20,-20],
        style(color=3, rgbcolor={0,0,255}));
    connect(sinV1.p, D1.n) annotation (points=[-80,20; -80,60; -10,60; -10,50;
          -40,50; -40,40], style(color=3, rgbcolor={0,0,255}));
    connect(sinV1.n, D3.n) annotation (points=[-80,0; -80,-40; -10,-40; -10,-30;
          -40,-30; -40,-20], style(color=3, rgbcolor={0,0,255}));
    connect(D1.p, Ground1.p) annotation (points=[-40,20; -40,10; -60,10; -60,
          -60; 50,-60], style(color=3, rgbcolor={0,0,255}));
    connect(C1.n, Ground1.p)
      annotation (points=[50,-30; 50,-60], style(color=3, rgbcolor={0,0,255}));
    connect(R1.n, Ground1.p) annotation (points=[80,-30; 80,-60; 50,-60], style(
          color=3, rgbcolor={0,0,255}));
    connect(C1.p, D4.n) annotation (points=[50,-10; 50,10; 20,10; 20,0], style(
          color=3, rgbcolor={0,0,255}));
    connect(R1.p, D4.n) annotation (points=[80,-10; 80,10; 20,10; 20,0], style(
          color=3, rgbcolor={0,0,255}));
  end test3;

    model test3_II

    annotation (Diagram,
      experiment(Algorithm="Radau"),
      Documentation(info="<html>
Comparison of <font color=red><b>BondLib</b></font> simulation results of <b>test3</b> and <b>test3_II</b>: <p>
<img src=\"../Images/test3d.png\"> <p>

The circuit now heats up.  The components were modeled to contain temperature-dependent resistor and capacitor values. <p>
<img src=\"../Images/test3e.png\"> <p>

The heat flow into the thermal capacitance shows the process of heating. <p>
<img src=\"../Images/test3f.png\"> <p>

<hr> <p>

<font size=5><b><u>Comments:</u></b></font> <p>

<font color=blue><b>The circuit fails to simulate using</b></font> <font color=red><b>Bondlib</b></font><font color=blue><b> with</b></font> <b>enforceStates = true</b><font color=blue><b>.  It dies with division 0/0 at time 0.  Hence I had to disable Dymola's state select algorithm by setting</b></font> <b>enforceStates = false</b><font color=blue><b>.  The problem is caused by a bad selection of state variables in this case.  Dymola now decides that it needs</b></font> <b>dynamic state selection</b><font color=blue><b>, which is even worse news than before.</b></font>  <font color=brown><b>There is evidently still an issue with</b></font> <font color=red><b>Dymola</b></font><font color=brown><b>'s state selection algorithm.</b></font> <p>

<font color=blue><b>Default steady-state initialization (</b></font><b>Advanced.DefaultSteadyStateInitialization = true</b><font color=blue><b>) must fail on this example.  The reason is that the device temperature is now an additional state variable.  Default steady-state initialization requires that the derivative of the temperature be zero, which can only be accomplished if no currents flow through any of the resistors, which is incompatible with the electrical steady state.</b></font> <p>

<font color=blue><b>In order to get the default steady-state initialization to work correctly with the thermal ports connected, we would need to add a loss from the thermal capacitor to the environment, i.e., add a temperature source representing the ambient temperature and a thermal conduction from the thermal capacitor to the temperature source.</b></font> <p>

<font color=blue><b>This would allow the software to compute the steady-state temperature, i.e., the temperature value at which the circuit produces exactly as much heat as is being lost to the environment.</b></font>
</html>"),
      Icon(
          Ellipse(extent=[-80,80; 80,-80], style(
              color=6,
              rgbcolor={255,255,0},
              fillColor=6,
              rgbfillColor={255,255,0},
              fillPattern=1)),
          Ellipse(extent=[-60,60; 60,-60], style(
              color=6,
              rgbcolor={255,255,0},
              fillColor=7,
              rgbfillColor={255,255,255},
              fillPattern=1)),
          Rectangle(extent=[-68,10; 70,-10], style(
              color=6,
              rgbcolor={255,255,0},
              fillColor=6,
              rgbfillColor={255,255,0},
              fillPattern=1)),
          Text(
            extent=[-80,80; 80,-80],
            string="?",
            style(
              color=0,
              rgbcolor={0,0,0},
              fillColor=6,
              rgbfillColor={255,255,0},
              fillPattern=1))),
      experimentSetupOutput);
  public
      BondLib.Electrical.Analog.Basic.Ground Ground1
        annotation (extent=[40,-80; 60,-60]);
      BondLib.Electrical.Analog.Spice.D D1(
        IS=1.e-6,
        RS=1,
        IBV=1.e-3,
        EG=1.11,
      TRS=0.01,
      enforceStates=false)   annotation (extent=[-30,20; -50,40], rotation=90);
      BondLib.Electrical.Analog.Spice.D D2(
        IS=1.e-6,
        RS=1,
        IBV=1.e-3,
        EG=1.11,
      TRS=0.01,
      enforceStates=false)   annotation (extent=[10,20; 30,40], rotation=-90);
      BondLib.Electrical.Analog.Spice.D D3(
        IS=1.e-6,
        RS=1,
        IBV=1.e-3,
        EG=1.11,
      TRS=0.01,
      enforceStates=false)   annotation (extent=[-50,-20; -30,0], rotation=-90);
      BondLib.Electrical.Analog.Spice.D D4(
        IS=1.e-6,
        RS=1,
        IBV=1.e-3,
        EG=1.11,
      TRS=0.01,
      enforceStates=false)   annotation (extent=[30,-20; 10,0], rotation=90);
      BondLib.Electrical.Analog.Spice.RampingSources.sinV sinV1(V=5, freqHz=20)
        annotation (extent=[-90,0; -70,20], rotation=-90);
      BondLib.Electrical.Analog.Spice.C C1(C=0.1, TC1=0.001)
        annotation (extent=[40,-30; 60,-10], rotation=-90);
      BondLib.Electrical.Analog.Spice.R R1(R=200, TR1=0.01)
        annotation (extent=[70,-30; 90,-10], rotation=-90);
    BondLib.Thermal.HeatTransfer.Passive.HeatCapacitor ThC1
      annotation (extent=[-30,-70; -10,-90]);
    equation
      connect(D1.p,D3. p)
        annotation (points=[-40,20; -40,0], style(color=3, rgbcolor={0,0,255}));
      connect(D4.n,D2. n)
        annotation (points=[20,0; 20,20], style(color=3, rgbcolor={0,0,255}));
      connect(D1.n,D2. p) annotation (points=[-40,40; -40,50; 20,50; 20,40],
          style(color=3, rgbcolor={0,0,255}));
      connect(D3.n,D4. p) annotation (points=[-40,-20; -40,-30; 20,-30; 20,-20],
          style(color=3, rgbcolor={0,0,255}));
      connect(sinV1.p,D1. n) annotation (points=[-80,20; -80,60; -10,60; -10,50;
          -40,50; -40,40],   style(color=3, rgbcolor={0,0,255}));
      connect(sinV1.n,D3. n) annotation (points=[-80,0; -80,-40; -10,-40; -10,
          -30; -40,-30; -40,-20],
                               style(color=3, rgbcolor={0,0,255}));
      connect(D1.p,Ground1. p) annotation (points=[-40,20; -40,10; -60,10; -60,
          -60; 50,-60],   style(color=3, rgbcolor={0,0,255}));
      connect(C1.n,Ground1. p)
        annotation (points=[50,-30; 50,-60], style(color=3, rgbcolor={0,0,255}));
      connect(R1.n,Ground1. p) annotation (points=[80,-30; 80,-60; 50,-60], style(
            color=3, rgbcolor={0,0,255}));
      connect(C1.p,D4. n) annotation (points=[50,-10; 50,10; 20,10; 20,0], style(
            color=3, rgbcolor={0,0,255}));
      connect(R1.p,D4. n) annotation (points=[80,-10; 80,10; 20,10; 20,0], style(
            color=3, rgbcolor={0,0,255}));
    connect(D1.heatPort, D3.heatPort) annotation (points=[-50,30; -50,-10],
        style(color=42, rgbcolor={191,0,0}));
    connect(D2.heatPort, D4.heatPort)
      annotation (points=[10,30; 10,-10], style(color=42, rgbcolor={191,0,0}));
    connect(D3.heatPort, D4.heatPort) annotation (points=[-50,-10; -50,-50; 10,
          -50; 10,-10], style(color=42, rgbcolor={191,0,0}));
    connect(C1.heatPort, D4.heatPort) annotation (points=[40,-20; 40,-50; 10,
          -50; 10,-10], style(color=42, rgbcolor={191,0,0}));
    connect(R1.heatPort, C1.heatPort) annotation (points=[70,-20; 70,-50; 40,
          -50; 40,-20], style(color=42, rgbcolor={191,0,0}));
    connect(ThC1.port, D4.heatPort) annotation (points=[-20,-70; -20,-50; 10,
          -50; 10,-10], style(color=42, rgbcolor={191,0,0}));
    end test3_II;

  model test3_III

    annotation (Diagram,
      experiment(Algorithm="Radau"),
      Documentation(info="<html>
<font color=red><b>BondLib</b></font> simulation results: <p>
<img src=\"../Images/test3g.png\"> <p>

<hr> <p>

<font size=5><b><u>Comments:</u></b></font> <p>

<font color=blue><b>I tried to match the</b></font> <font color=red><b>Bondlib</b></font> <font color=blue><b>diode model parameter values with those of</b></font> <font color=red><b>PSpice</b></font> <font color=blue><b>.  Generally, my evaluation version of</b></font> <font color=red><b>PSpice</b></font> <font color=blue><b> doesn't allow me to view the parameter window of their built-in models, but it does for the diode.</b></font> <p>

<font color=blue><b>Matching parameter values did not help.  There are no significant improvements in similarity.  I already noticed though from their parameter set that</b></font> <font color=red><b>PSpice</b></font> <font color=blue><b>uses different equations than </b></font> <font color=red><b>BondLib</b></font> <font color=blue><b>for modeling the reverse leakage current.  From their parameter set, I conclude that</b></font> <font color=red><b>PSpice</b></font> <font color=blue><b>models the reverse leakage current in the same way as is being used by</b></font> <font color=red><b>BondLib</b></font> <font color=blue><b>for its junction diode models inside the BJTs and MOSFETs.</b></font>  <font color=red><b>BondLib</b></font> <font color=blue><b>on the other hand is based on</b></font> <font color=red><b>HSpice</b></font><font color=blue><b>, which offers a more complex discrete diode model with several different modeling levels.</b></font>
</html>"),
      Icon(
        Ellipse(extent=[-80,80; 80,-80], style(
            color=6,
            rgbcolor={255,255,0},
            fillColor=6,
            rgbfillColor={255,255,0},
            fillPattern=1)),
        Ellipse(extent=[-60,60; 60,-60], style(
            color=6,
            rgbcolor={255,255,0},
            fillColor=7,
            rgbfillColor={255,255,255},
            fillPattern=1)),
        Rectangle(extent=[-68,10; 70,-10], style(
            color=6,
            rgbcolor={255,255,0},
            fillColor=6,
            rgbfillColor={255,255,0},
            fillPattern=1)),
        Text(
          extent=[-80,80; 80,-80],
          string="?",
          style(
            color=0,
            rgbcolor={0,0,0},
            fillColor=6,
            rgbfillColor={255,255,0},
            fillPattern=1))),
      experimentSetupOutput);
  public
    BondLib.Electrical.Analog.Basic.Ground Ground1
      annotation (extent=[40,-80; 60,-60]);
    BondLib.Electrical.Analog.Spice.D D1(